####################################################################################################
####################################################################################################
#                                        3-story MRF Building
####################################################################################################
####################################################################################################

####### MODEL FEATURES #######;
# UNITS:                     kip, in
# Generation:                Pre_Northridge
# Composite beams:           True
# Fracturing fiber sections: True
# Gravity system stiffness:  False
# Column splices included:   False
# Rigid diaphragm:           False
# Plastic hinge type:        non_RBS
# Backbone type:             ASCE41
# Cyclic degradation:        False
# Web connection type:       Bolted
# Panel zone model:          Elkady2021

# BUILD MODEL (2D - 3 DOF/node)
wipe all
model basic -ndm 2 -ndf 3

####################################################################################################
#                                      SOURCING HELPER FUNCTIONS                                   #
####################################################################################################

source ConstructPanel_Rectangle.tcl;
source PanelZoneSpring.tcl;
source fracSectionBolted.tcl;
source hingeBeamColumnFracture.tcl;
source sigCrNIST2017.tcl;
source fracSectionWelded.tcl;
source hingeBeamColumn.tcl;
source matHysteretic.tcl;
source matIMKBilin.tcl;
source matBilin02.tcl;
source modalAnalysis.tcl;

####################################################################################################
#                                              INPUT                                               #
####################################################################################################

# GENERAL CONSTANTS
set g 386.100;
set pi [expr 2.0*asin(1.0)];
set n 10.0; # stiffness multiplier for CPH elements
set addBasicRecorders 1
set addDetailedRecorders 1

# FRAME CENTERLINE DIMENSIONS
set num_stories  3;
set NBay  1;

# MATERIAL PROPERTIES
set Es  29000.000; 
set mu  0.300; 
set FyBeam  47.300;
set FyCol  47.300;

# RIGID MATERIAL FOR ZERO LENGTH ELEMENT STIFF DOF
set rigMatTag 99
uniaxialMaterial Elastic  $rigMatTag [expr 50*50*29000];  #Rigid Material [using axial stiffness of a 500in2 steel element] 

# RAYLEIGH DAMPING PARAMETERS
set  DampModeI 1;
set  DampModeJ 3;
set  zeta 0.020;

# GEOMETRIC TRANSFORMATIONS IDs
geomTransf Linear 		 1;
geomTransf PDelta 		 2;
geomTransf Corotational 3;
set trans_Linear 	1;
set trans_PDelta 	2;
set trans_Corot  	3;
set trans_selected  2;

# STIFF ELEMENTS FOR PANEL ZONE MODEL PROPERTY
set A_Stiff [expr 50*50]; # [using 500in2 section as a reference]
set I_Stiff [expr 50*pow(50,3)]; # [using second moment of area of a large rectangle as a reference]

# PANEL ZONE MODELING
set SH_PZ 0.015;
set pzModelTag 4;

# BACKBONE FACTORS FOR COMPOSITE BEAM
set Composite 1; # Consider composite action
set Comp_I       1.400; # stiffness factor for MR frame beams
set Comp_I_GC    1.400; # stiffness factor for EGF beams
set trib        3.000;
set tslab       3.000;
set bslab       36.000;
set AslabSteel  15.000;
# compBackboneFactors {MpP/Mp MpN/Mp Mc/MpP Mc/MpN Mr/MpP Mr/MpN D_P D_N theta_p_P_comp theta_p_N_comp theta_pc_P_comp theta_pc_P_comp};
set compBackboneFactors {1.350 1.250 1.300 1.050 0.300 0.200 1.150 1.000 1.800 0.950 1.350 0.950};
# slabFiberMaterials {fc epsc0 epsU fy degrad};
set slabFiberMaterials {-3.000 -0.002 -0.010 60.000 -0.100};

# DEGRADATION IN PLASTIC HINGEs
set degradation 0;
set c 0.000; # Exponent for degradation in plastic hinges

# MATERIAL PROPERTIES FOR FRACURING FIBER-SECTIONS
set alpha 7.6; # Calibration constant to compute KIC (Stillmaker et al. 2017)
set T_service_F 70; # Temperature at service [F]
set FyWeld 70; # Yielding strength for sigCr calculations (Use 70ksi to be consistent with Galvis et al. 2021 calibrations)
# fracSecMaterials {FyFiber EsFiber betaC_B betaC_T sigMin FuBolt FyTab FuTab};
set fracSecMaterials {150.000 29000.000 0.500 0.800 18.920 68.000 47.000 70.000};

# FRACTURE INDEX LIMIT FOR FRACTURE PER FLANGE AND CONNECTION
# Left-Bottom                       Left-Top                            Right-Bottom                       Right-Top
